DEPTH = 32;
WIDTH = 4;
ADDRESS_RADIX = HEX;
DATA_RADIX = BIN;
CONTENT
BEGIN
  0  : 0000;
  1  : 0001;
  2  : 0010;
  3  : 0011;
  4  : 1001;
  5  : 1100;
  6  : 0110;
  7  : 1011;
  8  : 1110;
  9  : 0100;
  A  : 1000;
  B  : 0010;
  C  : 1101;
  D  : 0101;
  E  : 1111;
  F  : 0001;
 10  : 1010;
 11  : 0111;
 12  : 0000;
 13  : 1100;
 14  : 0011;
 15  : 0110;
 16  : 1000;
 17  : 0101;
 18  : 0011;
 19  : 1111;
 1A  : 0000;
 1B  : 0110;
 1C  : 1001;
 1D  : 1101;
 1E  : 1110;
 1F  : 1111;
END;
